# Copyright Material Phases Data System, Switzerland & NIMS, Japan, 2023
data_S309957
_cell_length_a    4.290000
_cell_length_b    4.290000
_cell_length_c    4.290000
_cell_angle_alpha 90.000000
_cell_angle_beta  90.000000
_cell_angle_gamma 90.000000
_symmetry_Int_Tables_number    221
_symmetry_space_group_name_H-M Pm-3m
_space_group_crystal_system    cubic
_pauling_file_chemical_formula BaPb0.5Bi0.5O3
_pauling_file_object_repr      S-A696917
_pauling_file_object_version   1.0.7
_pauling_file_entry            S309957
_pauling_file_entry_reference  https://mpds.io/entry/S309957
_pauling_file_phase            BaPb0.5Bi0.5O3/221/cP5
_pauling_file_phase_reference  https://mpds.io/phase/BaPb0.5Bi0.5O3/221/cP5
_pauling_file_editors_comments
;
 atom coordinates, structure type assigned
 editor deduced probable site occupation from nominal composition
 cell parameter(s) taken from figure
;

loop_
 _symmetry_equiv_pos_site_id
 _symmetry_equiv_pos_as_xyz
1 '-x,-y,-z' 
2 '-x,-y,z' 
3 '-x,-z,-y' 
4 '-x,-z,y' 
5 '-x,y,-z' 
6 '-x,y,z' 
7 '-x,z,-y' 
8 '-x,z,y' 
9 '-y,-x,-z' 
10 '-y,-x,z' 
11 '-y,-z,-x' 
12 '-y,-z,x' 
13 '-y,x,-z' 
14 '-y,x,z' 
15 '-y,z,-x' 
16 '-y,z,x' 
17 '-z,-x,-y' 
18 '-z,-x,y' 
19 '-z,-y,-x' 
20 '-z,-y,x' 
21 '-z,x,-y' 
22 '-z,x,y' 
23 '-z,y,-x' 
24 '-z,y,x' 
25 'x,-y,-z' 
26 'x,-y,z' 
27 'x,-z,-y' 
28 'x,-z,y' 
29 'x,y,-z' 
30 'x,y,z' 
31 'x,z,-y' 
32 'x,z,y' 
33 'y,-x,-z' 
34 'y,-x,z' 
35 'y,-z,-x' 
36 'y,-z,x' 
37 'y,x,-z' 
38 'y,x,z' 
39 'y,z,-x' 
40 'y,z,x' 
41 'z,-x,-y' 
42 'z,-x,y' 
43 'z,-y,-x' 
44 'z,-y,x' 
45 'z,x,-y' 
46 'z,x,y' 
47 'z,y,-x' 
48 'z,y,x' 

loop_
 _atom_site_label
 _atom_site_type_symbol
 _atom_site_atomic_num
 _atom_site_periodic_num
 _atom_site_linus_pauling_num
 _atom_site_fract_x
 _atom_site_fract_y
 _atom_site_fract_z
 _atom_site_occupancy
 _atom_site_Wyckoff_symbol
 _pauling_file_site_symmetry
 O_A       O       8  100    2  0.5000  0.0000  0.0000  1.0000  3d  4/mm.m
 Ba_A      Ba     56   12   71  0.5000  0.5000  0.5000  1.0000  1b  m-3m
 Bi_A      Bi     83   98   41  0.0000  0.0000  0.0000  0.5000  1a  m-3m
 Pb_A      Pb     82   92   78  0.0000  0.0000  0.0000  0.5000  1a  m-3m

#
# end of data item S309957
#

