# Copyright Material Phases Data System, Switzerland & NIMS, Japan, 2023
data_S554609
_cell_length_a    5.936000
_cell_length_b    5.936000
_cell_length_c    8.420000
_cell_angle_alpha 90.000000
_cell_angle_beta  90.000000
_cell_angle_gamma 90.000000
_cell_measurement_temperature  20.0
_symmetry_Int_Tables_number    87
_symmetry_space_group_name_H-M I4/m
_space_group_crystal_system    tetragonal
_pauling_file_chemical_formula Ba2YTaO6
_pauling_file_object_repr      S-A696917
_pauling_file_object_version   1.2.0
_pauling_file_entry            S554609
_pauling_file_entry_reference  https://mpds.io/entry/S554609
_pauling_file_phase            Ba2YTaO6/87/tI20
_pauling_file_phase_reference  https://mpds.io/phase/Ba2YTaO6/87/tI20
_pauling_file_editors_comments
;
 no atom coordinates, structure type assigned
;

loop_
 _symmetry_equiv_pos_site_id
 _symmetry_equiv_pos_as_xyz
 1 -x+1/2,-y+1/2,-z+1/2
 2 -x+1/2,-y+1/2,z+1/2
 3 -x,-y,-z
 4 -x,-y,z
 5 -y+1/2,x+1/2,-z+1/2
 6 -y+1/2,x+1/2,z+1/2
 7 -y,x,-z
 8 -y,x,z
 9 x+1/2,y+1/2,-z+1/2
 10 x+1/2,y+1/2,z+1/2
 11 x,y,-z
 12 x,y,z
 13 y+1/2,-x+1/2,-z+1/2
 14 y+1/2,-x+1/2,z+1/2
 15 y,-x,-z
 16 y,-x,z

loop_
 _atom_site_label
 _atom_site_type_symbol
 _atom_site_atomic_num
 _atom_site_periodic_num
 _atom_site_linus_pauling_num
 _atom_site_fract_x
 _atom_site_fract_y
 _atom_site_fract_z
 _atom_site_occupancy
 _atom_site_Wyckoff_symbol
 _pauling_file_site_symmetry
 O_A       O       8  100    2  0.2110  0.2730  0.0000  1.0000  8h  m..
 O_B       O       8  100    2  0.0000  0.0000  0.2450  1.0000  4e  4..
 Ba_A      Ba     56   12   71  0.0000  0.5000  0.2500  1.0000  4d  -4..
 Y_A       Y      39   15  109  0.0000  0.0000  0.5000  1.0000  2b  4/m..
 Ta_A      Ta     73   52    6  0.0000  0.0000  0.0000  1.0000  2a  4/m..

#
# end of data item S554609
#
