# Copyright Material Phases Data System, Switzerland & NIMS, Japan, 2023
data_S381166
_cell_length_a    5.567500
_cell_length_b    7.579000
_cell_length_c    5.245500
_cell_angle_alpha 90.000000
_cell_angle_beta  90.000000
_cell_angle_gamma 90.000000
_cell_measurement_temperature  298.0
_symmetry_Int_Tables_number    62
_symmetry_space_group_name_H-M Pnma
_space_group_crystal_system    orthorhombic
_pauling_file_chemical_formula TmFeO3
_pauling_file_object_repr      S-A696917
_pauling_file_object_version   1.2.0
_pauling_file_entry            S381166
_pauling_file_entry_reference  https://mpds.io/entry/S381166
_pauling_file_phase            TmFeO3/62/oP20
_pauling_file_phase_reference  https://mpds.io/phase/TmFeO3/62/oP20
_pauling_file_editors_comments
;
 no atom coordinates, structure type assigned
 cell parameter(s) taken from figure
;

loop_
 _symmetry_equiv_pos_site_id
 _symmetry_equiv_pos_as_xyz
 1 -x+1/2,-y,z+1/2
 2 -x+1/2,y+1/2,z+1/2
 3 -x,-y,-z
 4 -x,y+1/2,-z
 5 x+1/2,-y+1/2,-z+1/2
 6 x+1/2,y,-z+1/2
 7 x,-y+1/2,z
 8 x,y,z

loop_
 _atom_site_label
 _atom_site_type_symbol
 _atom_site_atomic_num
 _atom_site_periodic_num
 _atom_site_linus_pauling_num
 _atom_site_fract_x
 _atom_site_fract_y
 _atom_site_fract_z
 _atom_site_occupancy
 _atom_site_Wyckoff_symbol
 _pauling_file_site_symmetry
 O_A       O       8  100    2  0.1984  0.0506  0.3043  1.0000  8d  1
 Tm_A      Tm     69   40   11  0.4372  0.2500  0.0156  1.0000  4c  .m.
 O_B       O       8  100    2  0.5328  0.2500  0.6005  1.0000  4c  .m.
 Fe_A      Fe     26   62   33  0.0000  0.0000  0.0000  1.0000  4a  -1

#
# end of data item S381166
#
